1
2
.dc V1 -10 100 1m
4
2
R2
I
2
D1
Id
1
/Input
V
1
/Load
V
